 WAVEWATCH III log file                                 version 7.14      
 =====================================================================
                                                  date : 2026/05/15
                                                  time :  20:56:16

 Model definition file read.
 Restart file read; cold start (calm).

 Grid name : Ripple duration test          

 No water levels.
 No curents.
 Prescribed winds.
 No ice fields.
 No momentum
 No air density
 No mud density.
 No mud thickness.
 No mud viscosity.
 No ice parameter 1
 No ice parameter 2
 No ice parameter 3
 No ice parameter 4
 No ice parameter 5

 Gridded output fields : 
--------------------------------------------------
     Wind speed          
     Wave height         
     Peak frequency      
     Mean wave dir. a1b1 
     Charnock parameter  

 Point output requested for     1 points : 
------------------------------------------

      point  |  longitude  |   latitude  |  name  
     --------|-------------|-------------|----------------
         1   |      0.00   |      0.00   |  point01                                 

 Initial time     : 1968/06/06 00:00:00 UTC


                                       |         input         |      output      |
                                       |-----------------------|------------------|
     step | pass |    date      time   | b w l c t r i i1 i5 d | g p t r b f c r2 |
  --------|------|---------------------|-----------------------|------------------|
         0|     1| 1968/06/06 00:00:00 |   F                   | X X              |
         1|     1|            00:10:00 |                       |   X              |
         2|     1|            00:20:00 |                       |   X              |
         3|     1|            00:30:00 |                       |   X              |
         4|     1|            00:40:00 |                       |   X              |
         5|     1|            00:50:00 |                       |   X              |
         6|     1|            01:00:00 |                       | X X              |
         7|     1|            01:10:00 |                       |   X              |
         8|     1|            01:20:00 |                       |   X              |
         9|     1|            01:30:00 |                       |   X              |
        10|     1|            01:40:00 |                       |   X              |
        11|     1|            01:50:00 |                       |   X              |
        12|     1|            02:00:00 |                       | X X              |
        13|     1|            02:10:00 |                       |   X              |
        14|     1|            02:20:00 |                       |   X              |
        15|     1|            02:30:00 |                       |   X              |
        16|     1|            02:40:00 |                       |   X              |
        17|     1|            02:50:00 |                       |   X              |
        18|     1|            03:00:00 |                       | X X              |
        19|     1|            03:10:00 |                       |   X              |
        20|     1|            03:20:00 |                       |   X              |
        21|     1|            03:30:00 |                       |   X              |
        22|     1|            03:40:00 |                       |   X              |
        23|     1|            03:50:00 |                       |   X              |
        24|     1|            04:00:00 |                       | X X              |
        25|     1|            04:10:00 |                       |   X              |
        26|     1|            04:20:00 |                       |   X              |
        27|     1|            04:30:00 |                       |   X              |
        28|     1|            04:40:00 |                       |   X              |
        29|     1|            04:50:00 |                       |   X              |
        30|     1|            05:00:00 |                       | X X              |
        31|     1|            05:10:00 |                       |   X              |
        32|     1|            05:20:00 |                       |   X              |
        33|     1|            05:30:00 |                       |   X              |
        34|     1|            05:40:00 |                       |   X              |
        35|     1|            05:50:00 |                       |   X              |
        36|     1|            06:00:00 |                       | X X              |
        37|     1|            06:10:00 |                       |   X              |
        38|     1|            06:20:00 |                       |   X              |
        39|     1|            06:30:00 |                       |   X              |
        40|     1|            06:40:00 |                       |   X              |
        41|     1|            06:50:00 |                       |   X              |
        42|     1|            07:00:00 |                       | X X              |
        43|     1|            07:10:00 |                       |   X              |
        44|     1|            07:20:00 |                       |   X              |
        45|     1|            07:30:00 |                       |   X              |
        46|     1|            07:40:00 |                       |   X              |
        47|     1|            07:50:00 |                       |   X              |
        48|     1|            08:00:00 |                       | X X              |
        49|     1|            08:10:00 |                       |   X              |
        50|     1|            08:20:00 |                       |   X              |
        51|     1|            08:30:00 |                       |   X              |
        52|     1|            08:40:00 |                       |   X              |
        53|     1|            08:50:00 |                       |   X              |
        54|     1|            09:00:00 |                       | X X              |
        55|     1|            09:10:00 |                       |   X              |
        56|     1|            09:20:00 |                       |   X              |
        57|     1|            09:30:00 |                       |   X              |
        58|     1|            09:40:00 |                       |   X              |
        59|     1|            09:50:00 |                       |   X              |
        60|     1|            10:00:00 |                       | X X              |
        61|     1|            10:10:00 |                       |   X              |
        62|     1|            10:20:00 |                       |   X              |
        63|     1|            10:30:00 |                       |   X              |
        64|     1|            10:40:00 |                       |   X              |
        65|     1|            10:50:00 |                       |   X              |
        66|     1|            11:00:00 |                       | X X              |
        67|     1|            11:10:00 |                       |   X              |
        68|     1|            11:20:00 |                       |   X              |
        69|     1|            11:30:00 |                       |   X              |
        70|     1|            11:40:00 |                       |   X              |
        71|     1|            11:50:00 |                       |   X              |
        72|     1|            12:00:00 |                       | X X              |
        73|     1|            12:10:00 |                       |   X              |
        74|     1|            12:20:00 |                       |   X              |
        75|     1|            12:30:00 |                       |   X              |
        76|     1|            12:40:00 |                       |   X              |
        77|     1|            12:50:00 |                       |   X              |
        78|     1|            13:00:00 |                       | X X              |
        79|     1|            13:10:00 |                       |   X              |
        80|     1|            13:20:00 |                       |   X              |
        81|     1|            13:30:00 |                       |   X              |
        82|     1|            13:40:00 |                       |   X              |
        83|     1|            13:50:00 |                       |   X              |
        84|     1|            14:00:00 |                       | X X              |
        85|     1|            14:10:00 |                       |   X              |
        86|     1|            14:20:00 |                       |   X              |
        87|     1|            14:30:00 |                       |   X              |
        88|     1|            14:40:00 |                       |   X              |
        89|     1|            14:50:00 |                       |   X              |
        90|     1|            15:00:00 |                       | X X              |
        91|     1|            15:10:00 |                       |   X              |
        92|     1|            15:20:00 |                       |   X              |
        93|     1|            15:30:00 |                       |   X              |
        94|     1|            15:40:00 |                       |   X              |
        95|     1|            15:50:00 |                       |   X              |
        96|     1|            16:00:00 |                       | X X              |
        97|     1|            16:10:00 |                       |   X              |
        98|     1|            16:20:00 |                       |   X              |
        99|     1|            16:30:00 |                       |   X              |
       100|     1|            16:40:00 |                       |   X              |
       101|     1|            16:50:00 |                       |   X              |
       102|     1|            17:00:00 |                       | X X              |
       103|     1|            17:10:00 |                       |   X              |
       104|     1|            17:20:00 |                       |   X              |
       105|     1|            17:30:00 |                       |   X              |
       106|     1|            17:40:00 |                       |   X              |
       107|     1|            17:50:00 |                       |   X              |
       108|     1|            18:00:00 |                       | X X              |
       109|     1|            18:10:00 |                       |   X              |
       110|     1|            18:20:00 |                       |   X              |
       111|     1|            18:30:00 |                       |   X              |
       112|     1|            18:40:00 |                       |   X              |
       113|     1|            18:50:00 |                       |   X              |
       114|     1|            19:00:00 |                       | X X              |
       115|     1|            19:10:00 |                       |   X              |
       116|     1|            19:20:00 |                       |   X              |
       117|     1|            19:30:00 |                       |   X              |
       118|     1|            19:40:00 |                       |   X              |
       119|     1|            19:50:00 |                       |   X              |
       120|     1|            20:00:00 |                       | X X              |
       121|     1|            20:10:00 |                       |   X              |
       122|     1|            20:20:00 |                       |   X              |
       123|     1|            20:30:00 |                       |   X              |
       124|     1|            20:40:00 |                       |   X              |
       125|     1|            20:50:00 |                       |   X              |
       126|     1|            21:00:00 |                       | X X              |
       127|     1|            21:10:00 |                       |   X              |
       128|     1|            21:20:00 |                       |   X              |
       129|     1|            21:30:00 |                       |   X              |
       130|     1|            21:40:00 |                       |   X              |
       131|     1|            21:50:00 |                       |   X              |
       132|     1|            22:00:00 |                       | X X              |
       133|     1|            22:10:00 |                       |   X              |
       134|     1|            22:20:00 |                       |   X              |
       135|     1|            22:30:00 |                       |   X              |
       136|     1|            22:40:00 |                       |   X              |
       137|     1|            22:50:00 |                       |   X              |
       138|     1|            23:00:00 |                       | X X              |
       139|     1|            23:10:00 |                       |   X              |
       140|     1|            23:20:00 |                       |   X              |
       141|     1|            23:30:00 |                       |   X              |
       142|     1|            23:40:00 |                       |   X              |
       143|     1|            23:50:00 |                       |   X              |
       144|     1| 1968/06/07 00:00:00 |                       | L L              |
  --------+------+---------------------+-----------------------+------------------+

  Initialization time :      0.07 s
  Elapsed time        :      0.09 s
