$ WAVEWATCH III shell input file: Ripple duration-limited comparison
$ ----------------------------------------------------------------
$ Forcing flags. Order is WLV, CUR, WND, ICE, mud, air-density.
$ Each pair: (data-from-file, homogeneous-input).
   F F                  $ WLV   — water level
   F F                  $ CUR   — current
   T T                  $ WND   — wind: active (T) + homogeneous (T)
   F F                  $ ICE
   F F                  $ MUD
   F F                  $ AIR-density
   F                    $ ASD   — assimilation
   F                    $ TSF   — tide
   F                    $ MOV   — moving grid
$
$ Run start / end (24-hour integration)
   19680606 000000
   19680607 000000
$
$ Number of output streams
   1
$
$ Stream 1: gridded output at hourly intervals
   19680606 000000   3600   19680607 000000
N
HS DIR FP CHA WND
$
$ Stream 2: point output every 10 minutes
   19680606 000000    600  19680607 000000
   0.0 0.0  'point01'
   0.0 0.0  'STOPSTRING'
$
$ Other streams disabled (track / restart / boundary / partitioning)
   19680606 000000      0  19680607 000000
   19680606 000000      0  19680607 000000
   19680606 000000      0  19680607 000000
   19680606 000000      0  19680607 000000
$
$ Homogeneous WND input: U=17 m/s eastward.
   'WND' 19680606 000000   17.   90.   0.
   'STP'
$
$ End.
